   10
 KS-SCF000/LANL2DZ  ENERGY=-1457.30370505
 Ag         1.1917201993       -1.1410781025       -0.0580687592
 Ag        -0.8001641972       -3.2642702784       -0.0800579758
 Ag        -1.5942595239       -0.4571941172       -0.0712733902
 Ag        -2.4347333830        2.3311658694       -0.0922967927
 Ag         0.3899804590        1.6107765073       -0.0764082322
 Ag         3.2276654174        0.9438124563       -0.0831398347
 Ag        -1.1896047049        1.1565479499        2.2667696150
 Ag        -0.4009961885       -1.5895214552        2.2769941998
 Ag         1.5926431811        0.4777212683        2.2717540418
 Ag         0.0231697408        0.0360929022        4.6699331282
