8
-1.1664570620988702e+03 frame 25   xyz file generated by TeraChem b3lyp KS
    Ag    -0.7456056091    2.3856471211   -1.4515445136
    Ag     1.6737033352   -1.6732661997   -1.6739313184
    Ag     0.4591088745   -1.4840397323    0.8991078438
    Ag    -1.0384616883    1.0381554429    1.0386935615
    Ag    -2.3854088167   -1.4522724389    0.7451474515
    Ag    -0.8993518086   -0.4588564502   -1.4839487360
    Ag     1.4521560584    0.7451361796    2.3854533719
    Ag     1.4838596545    0.8994970638   -0.4589776543
