   10
 KS-SCF000/LANL2DZ  ENERGY=-1457.34660204
 Ag         1.0980770173       -1.5323948176       -0.4597211405
 Ag        -1.3418596067       -2.8806614905       -0.8606012480
 Ag        -1.3369161453       -5.4569294071       -2.0015593818
 Ag         1.0895909722       -4.1028029605       -1.5897926229
 Ag         3.5658830794       -2.8008607507       -1.1822734283
 Ag         1.1471364959       -6.6904550450       -2.7275200871
 Ag         3.6220978891       -5.3756997490       -2.3467308095
 Ag         6.0490759883       -4.0277496081       -1.9210246679
 Ag         6.0550725361       -6.6018016096       -3.0647055588
 Ag         3.6129327736       -7.9420335620       -3.4859390552
