4
-5.8318327245057935e+02 frame 7   xyz file generated by TeraChem ks b3lyp
    Ag    -0.0000803501   -1.3374091483    0.0005560726
    Ag     0.0000814791    1.3374048863    0.0005565489
    Ag    -2.4769142090    0.0001362981   -0.0005561229
    Ag     2.4769140801   -0.0001320360   -0.0005564987
