6
-8.7482974831818751e+02 frame 11   xyz file generated by TeraChem ks b3lyp
    Ag     3.0785449681    0.8293745267   -0.0047162745
    Ag     1.1767273971   -1.1767840652   -0.0004667334
    Ag     0.4328094621    1.6078316250    0.0085646772
    Ag    -1.6080390314   -0.4329408548    0.0026901941
    Ag    -2.2508038269    2.2509384050   -0.0049537446
    Ag    -0.8292399688   -3.0784206358   -0.0011171188
